96735
  -OEChem-12092212373D

 27 28  0     1  0  0  0  0  0999 V2000
    2.8050    3.0955   -0.5916 Br  0  0  0  0  0  0  0  0  0  0  0  0
   -1.5616    0.6414    1.8254 O   0  0  0  0  0  0  0  0  0  0  0  0
   -2.2483    2.1989    0.3174 O   0  0  0  0  0  0  0  0  0  0  0  0
    0.9914   -2.5586    0.3446 N   0  0  0  0  0  0  0  0  0  0  0  0
   -4.0297    0.3119   -0.6544 N   0  0  0  0  0  0  0  0  0  0  0  0
   -0.5449   -1.2179   -0.5323 C   0  0  0  0  0  0  0  0  0  0  0  0
   -1.8190   -0.7222   -1.0920 C   0  0  0  0  0  0  0  0  0  0  0  0
    0.6466   -0.4639   -0.3410 C   0  0  0  0  0  0  0  0  0  0  0  0
   -2.7925   -0.1579   -0.0280 C   0  0  1  0  0  0  0  0  0  0  0  0
    1.5947   -1.3284    0.2104 C   0  0  0  0  0  0  0  0  0  0  0  0
   -0.3016   -2.5018   -0.1016 C   0  0  0  0  0  0  0  0  0  0  0  0
    1.0106    0.8754   -0.5845 C   0  0  0  0  0  0  0  0  0  0  0  0
    2.8938   -0.9191    0.5315 C   0  0  0  0  0  0  0  0  0  0  0  0
    2.3066    1.2990   -0.2683 C   0  0  0  0  0  0  0  0  0  0  0  0
   -2.1834    1.0339    0.6834 C   0  0  0  0  0  0  0  0  0  0  0  0
    3.2321    0.4139    0.2811 C   0  0  0  0  0  0  0  0  0  0  0  0
   -1.6078    0.0497   -1.8446 H   0  0  0  0  0  0  0  0  0  0  0  0
   -2.3162   -1.5385   -1.6337 H   0  0  0  0  0  0  0  0  0  0  0  0
   -3.0485   -0.9277    0.7098 H   0  0  0  0  0  0  0  0  0  0  0  0
   -0.9312   -3.3803   -0.0712 H   0  0  0  0  0  0  0  0  0  0  0  0
    1.4392   -3.3838    0.7188 H   0  0  0  0  0  0  0  0  0  0  0  0
    0.2931    1.5661   -1.0187 H   0  0  0  0  0  0  0  0  0  0  0  0
    3.6149   -1.6075    0.9592 H   0  0  0  0  0  0  0  0  0  0  0  0
   -4.6923    0.5947    0.0671 H   0  0  0  0  0  0  0  0  0  0  0  0
   -4.4699   -0.4578   -1.1574 H   0  0  0  0  0  0  0  0  0  0  0  0
    4.2384    0.7476    0.5253 H   0  0  0  0  0  0  0  0  0  0  0  0
   -1.1657    1.3998    2.3052 H   0  0  0  0  0  0  0  0  0  0  0  0
  1 14  1  0  0  0  0
  2 15  1  0  0  0  0
  2 27  1  0  0  0  0
  3 15  2  0  0  0  0
  4 10  1  0  0  0  0
  4 11  1  0  0  0  0
  4 21  1  0  0  0  0
  5  9  1  0  0  0  0
  5 24  1  0  0  0  0
  5 25  1  0  0  0  0
  6  7  1  0  0  0  0
  6  8  1  0  0  0  0
  6 11  2  0  0  0  0
  7  9  1  0  0  0  0
  7 17  1  0  0  0  0
  7 18  1  0  0  0  0
  8 10  2  0  0  0  0
  8 12  1  0  0  0  0
  9 15  1  0  0  0  0
  9 19  1  0  0  0  0
 10 13  1  0  0  0  0
 11 20  1  0  0  0  0
 12 14  2  0  0  0  0
 12 22  1  0  0  0  0
 13 16  2  0  0  0  0
 13 23  1  0  0  0  0
 14 16  1  0  0  0  0
 16 26  1  0  0  0  0
M  END
> <PUBCHEM_COMPOUND_CID>
96735

> <PUBCHEM_CONFORMER_RMSD>
0.6

> <PUBCHEM_CONFORMER_DIVERSEORDER>
1
21
23
27
7
6
17
16
25
18
8
20
15
13
19
3
26
9
22
14
12
11
4
5
10
2
24

> <PUBCHEM_MMFF94_PARTIAL_CHARGES>
23
1 -0.11
10 -0.15
11 -0.3
12 -0.15
13 -0.15
14 0.11
15 0.66
16 -0.15
2 -0.65
20 0.15
21 0.27
22 0.15
23 0.15
24 0.36
25 0.36
26 0.15
27 0.5
3 -0.57
4 0.03
5 -0.99
6 -0.18
7 0.18
9 0.33

> <PUBCHEM_EFFECTIVE_ROTOR_COUNT>
3

> <PUBCHEM_PHARMACOPHORE_FEATURES>
10
1 1 hydrophobe
1 2 acceptor
1 3 acceptor
1 4 cation
1 4 donor
1 5 cation
1 5 donor
3 2 3 15 anion
5 4 6 8 10 11 rings
6 8 10 12 13 14 16 rings

> <PUBCHEM_HEAVY_ATOM_COUNT>
16

> <PUBCHEM_ATOM_DEF_STEREO_COUNT>
0

> <PUBCHEM_ATOM_UDEF_STEREO_COUNT>
1

> <PUBCHEM_BOND_DEF_STEREO_COUNT>
0

> <PUBCHEM_BOND_UDEF_STEREO_COUNT>
0

> <PUBCHEM_ISOTOPIC_ATOM_COUNT>
0

> <PUBCHEM_COMPONENT_COUNT>
1

> <PUBCHEM_CACTVS_TAUTO_COUNT>
1

> <PUBCHEM_CONFORMER_ID>
000179DF00000001

> <PUBCHEM_MMFF94_ENERGY>
20.9886

> <PUBCHEM_FEATURE_SELFOVERLAP>
50.892

> <PUBCHEM_SHAPE_FINGERPRINT>
11471102 22 18113907017704346890
11640471 11 17845098359332862833
12403259 327 15647322104417206741
12491281 212 18263649618382218608
13140716 1 18189606327898569578
13618510 140 18409452526420472100
13764800 53 18048323532925062602
14787075 74 18124315167178597895
15490181 8 18412833503275010278
15775835 57 18201723929178119937
16945 1 18409454652334331470
192875 21 18339062822754813833
20510252 161 17617664697134019442
21524375 3 18272090525808676422
21665062 11 17834692495224876801
22094290 62 18410011057116016980
23419403 2 14064036600601634441
23557571 272 16485554645227557526
2748010 2 18192158298407538726
305870 269 18338518525844391474
4175511 71 18193564372126828886
474 4 18409165523688807169
526903 126 17838055166860279408
537710 114 18202278130768364809
63268167 104 18338793420873123914
6333272 397 18409730685624180515
7364860 26 18057606464616908766
74978 22 18337957904190356830
7832392 63 17908425753689332281

> <PUBCHEM_SHAPE_MULTIPOLES>
313.51
5.41
2.92
1.01
0.7
0.2
-0.2
3.22
0.26
-1.3
0
0.39
0.19
-0.91

> <PUBCHEM_SHAPE_SELFOVERLAP>
660.978

> <PUBCHEM_SHAPE_VOLUME>
181.1

> <PUBCHEM_COORDINATE_TYPE>
2
5
10

$$$$
