644330
  -OEChem-12092212393D

 27 28  0     1  0  0  0  0  0999 V2000
   -2.7141   -2.9874   -0.6014 Cl  0  0  0  0  0  0  0  0  0  0  0  0
    1.5602   -0.6658    1.8259 O   0  0  0  0  0  0  0  0  0  0  0  0
    2.3431   -2.1681    0.3173 O   0  0  0  0  0  0  0  0  0  0  0  0
   -1.0463    2.5271    0.3683 N   0  0  0  0  0  0  0  0  0  0  0  0
    4.0284   -0.2395   -0.6684 N   0  0  0  0  0  0  0  0  0  0  0  0
    0.5143    1.2250   -0.5237 C   0  0  0  0  0  0  0  0  0  0  0  0
    1.7966    0.7598   -1.0901 C   0  0  0  0  0  0  0  0  0  0  0  0
   -0.6629    0.4469   -0.3405 C   0  0  0  0  0  0  0  0  0  0  0  0
    2.7868    0.2007   -0.0362 C   0  0  1  0  0  0  0  0  0  0  0  0
   -1.6267    1.2876    0.2202 C   0  0  0  0  0  0  0  0  0  0  0  0
    0.2475    2.4991   -0.0786 C   0  0  0  0  0  0  0  0  0  0  0  0
   -1.0021   -0.8962   -0.5988 C   0  0  0  0  0  0  0  0  0  0  0  0
   -2.9180    0.8507    0.5366 C   0  0  0  0  0  0  0  0  0  0  0  0
   -2.2899   -1.3472   -0.2875 C   0  0  0  0  0  0  0  0  0  0  0  0
    2.2148   -1.0073    0.6856 C   0  0  0  0  0  0  0  0  0  0  0  0
   -3.2316   -0.4854    0.2714 C   0  0  0  0  0  0  0  0  0  0  0  0
    1.5984   -0.0087   -1.8498 H   0  0  0  0  0  0  0  0  0  0  0  0
    2.2768    1.5906   -1.6248 H   0  0  0  0  0  0  0  0  0  0  0  0
    3.0308    0.9707    0.7055 H   0  0  0  0  0  0  0  0  0  0  0  0
    0.8605    3.3888   -0.0387 H   0  0  0  0  0  0  0  0  0  0  0  0
   -1.5091    3.3397    0.7516 H   0  0  0  0  0  0  0  0  0  0  0  0
   -0.2725   -1.5705   -1.0393 H   0  0  0  0  0  0  0  0  0  0  0  0
   -3.6517    1.5209    0.9718 H   0  0  0  0  0  0  0  0  0  0  0  0
    4.7015   -0.5098    0.0480 H   0  0  0  0  0  0  0  0  0  0  0  0
    4.4494    0.5395   -1.1732 H   0  0  0  0  0  0  0  0  0  0  0  0
   -4.2311   -0.8424    0.5108 H   0  0  0  0  0  0  0  0  0  0  0  0
    1.2026   -1.4518    2.2914 H   0  0  0  0  0  0  0  0  0  0  0  0
  1 14  1  0  0  0  0
  2 15  1  0  0  0  0
  2 27  1  0  0  0  0
  3 15  2  0  0  0  0
  4 10  1  0  0  0  0
  4 11  1  0  0  0  0
  4 21  1  0  0  0  0
  5  9  1  0  0  0  0
  5 24  1  0  0  0  0
  5 25  1  0  0  0  0
  6  7  1  0  0  0  0
  6  8  1  0  0  0  0
  6 11  2  0  0  0  0
  7  9  1  0  0  0  0
  7 17  1  0  0  0  0
  7 18  1  0  0  0  0
  8 10  2  0  0  0  0
  8 12  1  0  0  0  0
  9 15  1  0  0  0  0
  9 19  1  0  0  0  0
 10 13  1  0  0  0  0
 11 20  1  0  0  0  0
 12 14  2  0  0  0  0
 12 22  1  0  0  0  0
 13 16  2  0  0  0  0
 13 23  1  0  0  0  0
 14 16  1  0  0  0  0
 16 26  1  0  0  0  0
M  END
> <PUBCHEM_COMPOUND_CID>
644330

> <PUBCHEM_CONFORMER_RMSD>
0.6

> <PUBCHEM_CONFORMER_DIVERSEORDER>
1
16
7
17
14
13
15
6
5
18
9
8
3
12
10
11
2
4

> <PUBCHEM_MMFF94_PARTIAL_CHARGES>
23
1 -0.18
10 -0.15
11 -0.3
12 -0.15
13 -0.15
14 0.18
15 0.66
16 -0.15
2 -0.65
20 0.15
21 0.27
22 0.15
23 0.15
24 0.36
25 0.36
26 0.15
27 0.5
3 -0.57
4 0.03
5 -0.99
6 -0.18
7 0.18
9 0.33

> <PUBCHEM_EFFECTIVE_ROTOR_COUNT>
3

> <PUBCHEM_PHARMACOPHORE_FEATURES>
9
1 2 acceptor
1 3 acceptor
1 4 cation
1 4 donor
1 5 cation
1 5 donor
3 2 3 15 anion
5 4 6 8 10 11 rings
6 8 10 12 13 14 16 rings

> <PUBCHEM_HEAVY_ATOM_COUNT>
16

> <PUBCHEM_ATOM_DEF_STEREO_COUNT>
1

> <PUBCHEM_ATOM_UDEF_STEREO_COUNT>
0

> <PUBCHEM_BOND_DEF_STEREO_COUNT>
0

> <PUBCHEM_BOND_UDEF_STEREO_COUNT>
0

> <PUBCHEM_ISOTOPIC_ATOM_COUNT>
0

> <PUBCHEM_COMPONENT_COUNT>
1

> <PUBCHEM_CACTVS_TAUTO_COUNT>
1

> <PUBCHEM_CONFORMER_ID>
0009D4EA00000001

> <PUBCHEM_MMFF94_ENERGY>
20.9538

> <PUBCHEM_FEATURE_SELFOVERLAP>
45.82

> <PUBCHEM_SHAPE_FINGERPRINT>
11321824 6 18340190904663266103
11578080 2 17897699128507560268
11806522 49 18122060081255618748
12382932 28 18413669106104543058
12553582 1 18410007779845330819
13538477 17 18408884005757096972
14787075 74 18120090852089335876
15001771 113 18337388356855873811
15076042 46 18123749755612576688
15375462 189 18261116308841765843
16752209 62 18265604395390388389
16945 1 18412257311773774549
20291156 8 18410013277297909703
20442098 301 18410573946681569690
20510252 161 17986397685071307865
20645477 70 17762889266863162111
20871998 184 18272089336092270565
22112679 90 18270976755116447901
22445834 79 18335143063690801803
2255824 54 17901671797420559349
23184049 29 18198344163826041117
232386 152 18339932605082074085
23388829 49 18408604785601410412
23402539 116 18408318917664368782
23419403 2 16963725620665035312
23463225 33 18337115579098325389
23552423 10 18048319139484976061
23559900 14 18272088271673766444
23598294 1 18267592303396373905
2748010 2 18197774608144684621
3312278 4 18335706052288424724
34934 24 18409165523747076397
427121 178 16123352159406999601
6338986 31 18197761379713913327
7364860 26 17910954961087657113
74978 22 18339639061758925357

> <PUBCHEM_SHAPE_MULTIPOLES>
309.44
5.34
2.78
1.01
1.21
0.17
-0.2
2.79
0.16
-1.2
0.03
0.4
0.17
-0.91

> <PUBCHEM_SHAPE_SELFOVERLAP>
658.036

> <PUBCHEM_SHAPE_VOLUME>
174.1

> <PUBCHEM_COORDINATE_TYPE>
2
5
10

$$$$
