11737641
  -OEChem-12092212383D

 27 28  0     1  0  0  0  0  0999 V2000
   -4.4920   -0.5490   -0.8566 Br  0  0  0  0  0  0  0  0  0  0  0  0
    1.7352    0.7285   -1.8050 O   0  0  0  0  0  0  0  0  0  0  0  0
    2.9256    1.8351   -0.2241 O   0  0  0  0  0  0  0  0  0  0  0  0
   -1.4911   -1.8961   -0.2929 N   0  0  0  0  0  0  0  0  0  0  0  0
    4.1804   -0.5436    0.4041 N   0  0  0  0  0  0  0  0  0  0  0  0
    0.4131   -1.0857    0.5097 C   0  0  0  0  0  0  0  0  0  0  0  0
    1.8142   -0.9904    0.9673 C   0  0  0  0  0  0  0  0  0  0  0  0
   -0.5465   -0.0352    0.4958 C   0  0  0  0  0  0  0  0  0  0  0  0
    2.8210   -0.6004   -0.1397 C   0  0  1  0  0  0  0  0  0  0  0  0
   -1.7324   -0.5700   -0.0122 C   0  0  0  0  0  0  0  0  0  0  0  0
   -0.1972   -2.2169    0.0190 C   0  0  0  0  0  0  0  0  0  0  0  0
   -0.5200    1.3237    0.8677 C   0  0  0  0  0  0  0  0  0  0  0  0
   -2.8977    0.1890   -0.1673 C   0  0  0  0  0  0  0  0  0  0  0  0
   -1.6782    2.0952    0.7181 C   0  0  0  0  0  0  0  0  0  0  0  0
    2.5132    0.7813   -0.6921 C   0  0  0  0  0  0  0  0  0  0  0  0
   -2.8476    1.5346    0.2083 C   0  0  0  0  0  0  0  0  0  0  0  0
    2.1150   -1.9553    1.3984 H   0  0  0  0  0  0  0  0  0  0  0  0
    1.8750   -0.2662    1.7915 H   0  0  0  0  0  0  0  0  0  0  0  0
    2.8017   -1.3278   -0.9596 H   0  0  0  0  0  0  0  0  0  0  0  0
    0.1713   -3.2212   -0.1372 H   0  0  0  0  0  0  0  0  0  0  0  0
   -2.1714   -2.5387   -0.6744 H   0  0  0  0  0  0  0  0  0  0  0  0
    0.3797    1.7776    1.2726 H   0  0  0  0  0  0  0  0  0  0  0  0
   -1.6638    3.1434    1.0046 H   0  0  0  0  0  0  0  0  0  0  0  0
   -3.7274    2.1665    0.1069 H   0  0  0  0  0  0  0  0  0  0  0  0
    4.8431   -0.3713   -0.3513 H   0  0  0  0  0  0  0  0  0  0  0  0
    4.4280   -1.4513    0.7964 H   0  0  0  0  0  0  0  0  0  0  0  0
    1.5458    1.6227   -2.1611 H   0  0  0  0  0  0  0  0  0  0  0  0
  1 13  1  0  0  0  0
  2 15  1  0  0  0  0
  2 27  1  0  0  0  0
  3 15  2  0  0  0  0
  4 10  1  0  0  0  0
  4 11  1  0  0  0  0
  4 21  1  0  0  0  0
  5  9  1  0  0  0  0
  5 25  1  0  0  0  0
  5 26  1  0  0  0  0
  6  7  1  0  0  0  0
  6  8  1  0  0  0  0
  6 11  2  0  0  0  0
  7  9  1  0  0  0  0
  7 17  1  0  0  0  0
  7 18  1  0  0  0  0
  8 10  2  0  0  0  0
  8 12  1  0  0  0  0
  9 15  1  0  0  0  0
  9 19  1  0  0  0  0
 10 13  1  0  0  0  0
 11 20  1  0  0  0  0
 12 14  2  0  0  0  0
 12 22  1  0  0  0  0
 13 16  2  0  0  0  0
 14 16  1  0  0  0  0
 14 23  1  0  0  0  0
 16 24  1  0  0  0  0
M  END
> <PUBCHEM_COMPOUND_CID>
11737641

> <PUBCHEM_CONFORMER_RMSD>
0.6

> <PUBCHEM_CONFORMER_DIVERSEORDER>
1
16
19
14
7
13
11
15
18
6
5
12
8
3
17
4
9
2
10

> <PUBCHEM_MMFF94_PARTIAL_CHARGES>
23
1 -0.11
10 -0.15
11 -0.3
12 -0.15
13 0.11
14 -0.15
15 0.66
16 -0.15
2 -0.65
20 0.15
21 0.27
22 0.15
23 0.15
24 0.15
25 0.36
26 0.36
27 0.5
3 -0.57
4 0.03
5 -0.99
6 -0.18
7 0.18
9 0.33

> <PUBCHEM_EFFECTIVE_ROTOR_COUNT>
3

> <PUBCHEM_PHARMACOPHORE_FEATURES>
10
1 1 hydrophobe
1 2 acceptor
1 3 acceptor
1 4 cation
1 4 donor
1 5 cation
1 5 donor
3 2 3 15 anion
5 4 6 8 10 11 rings
6 8 10 12 13 14 16 rings

> <PUBCHEM_HEAVY_ATOM_COUNT>
16

> <PUBCHEM_ATOM_DEF_STEREO_COUNT>
1

> <PUBCHEM_ATOM_UDEF_STEREO_COUNT>
0

> <PUBCHEM_BOND_DEF_STEREO_COUNT>
0

> <PUBCHEM_BOND_UDEF_STEREO_COUNT>
0

> <PUBCHEM_ISOTOPIC_ATOM_COUNT>
0

> <PUBCHEM_COMPONENT_COUNT>
1

> <PUBCHEM_CACTVS_TAUTO_COUNT>
1

> <PUBCHEM_CONFORMER_ID>
00B31A2900000001

> <PUBCHEM_MMFF94_ENERGY>
21.2917

> <PUBCHEM_FEATURE_SELFOVERLAP>
50.894

> <PUBCHEM_SHAPE_FINGERPRINT>
10062212 137 18338790109833023619
11640471 11 17823430464157310204
13538477 17 18334570282594605042
14115302 16 18335699481004429023
14993402 34 18187928339683679406
15775835 57 18260559904629766484
16945 1 18340778082358437947
17802600 8 18261385633398388900
17862501 102 18338228272007223554
18186145 218 18408608041313143461
192875 21 18410006637383965324
20645476 183 18187076252595506835
21524375 3 18333733489768519475
23402539 116 18201710734874874452
23419403 2 16536722669594432170
23557571 272 17489867120170046770
23559900 14 18272087249550677728
2748010 2 16032660553244265307
353137 74 18410576201586879465
474 4 17677053563657309804
5262128 65 17702128961242040124
537710 114 18410572907668599745
53812653 8 18412546496559348171
7364860 26 17839465487959327439
7832392 63 17907866102070327712
9981440 41 17612874108177617872

> <PUBCHEM_SHAPE_MULTIPOLES>
313.51
6.46
2.11
1.04
0.23
0.15
0.25
0.21
1.49
0.41
-0.22
-0.24
0.17
-0.9

> <PUBCHEM_SHAPE_SELFOVERLAP>
660.914

> <PUBCHEM_SHAPE_VOLUME>
180.8

> <PUBCHEM_COORDINATE_TYPE>
2
5
10

$$$$
